40
	Energy:     -15.5912249
H         -3.66878       -0.93949        0.41080
H         -4.89403       -1.39004        1.64420
H         -5.23778       -0.06854        0.47728
H         -4.02148        0.17397        1.77599
H         -1.69160        2.02355       -1.32579
H         -2.36494        2.99665        0.02543
H         -1.95445        1.26732        0.28162
H         -3.36106        1.71376       -0.74128
H         -0.01941       -1.80651       -1.42165
H         -1.60755       -2.45988       -0.89509
H         -1.51025       -0.82888       -1.64168
H         -0.85151       -1.10364        0.00586
H          2.63923       -2.20279        1.94291
H          0.87657       -2.32689        1.62363
H          2.04887       -3.06617        0.48209
H          1.90568       -1.27950        0.58876
H          1.56089        3.46970        1.52078
H          0.30396        4.15587        2.60553
H         -0.07021        2.72304        1.59115
H          0.14669        4.33139        0.82439
H          1.72803       -0.17852        3.93353
H          0.85705        1.39023        3.85274
H          0.25011       -0.02283        2.92541
H          1.76881        0.79409        2.42442
H         -1.97694        1.48579        2.88439
H         -2.53754        3.19001        2.80215
H         -1.64909        2.60479        4.24971
H         -3.32455        2.03893        3.93416
H         -1.17077       -2.78112        3.38610
H         -2.95076       -2.61348        3.21568
H         -1.96624       -3.18769        1.82721
H         -1.85571       -1.47644        2.36002
H          2.38200        1.32095       -0.63539
H          1.04254        2.39148       -1.17033
H          0.69760        0.97741       -0.11849
H          1.17884        0.72623       -1.82974
H         -0.63782       -0.28257        5.67042
H         -2.15520       -0.36683        4.71338
H         -2.17485        0.33516        6.36517
H         -1.93575       -1.43150        6.14159
