12
	Energy:       3.7827015
Xe        -4.93705        1.03348       -4.12005
Xe        -2.41330        1.34545       -4.16819
Xe         0.11135        1.65220       -4.20378
Xe        -4.78274        0.08637       -1.81452
Xe        -2.25796        0.39193       -1.85060
Xe         0.26594        0.70260       -1.89929
Xe        -4.56893       -0.85024        0.48346
Xe        -2.09969       -0.57974        0.51363
Xe         0.35996       -0.25022        0.40004
Xe        -5.03100        1.98581       -6.41959
Xe        -2.57177        2.31891       -6.53168
Xe        -0.10292        2.59278       -6.50010
